
*** ChampSim Multicore Out-of-Order Simulator ***

Warmup Instructions: 1000000
Simulation Instructions: 4000000
Number of CPUs: 4
LLC sets: 8192
LLC ways: 16
Off-chip DRAM Size: 8192 MB Channels: 2 Width: 64-bit Data Rate: 1600 MT/s

CPU 0 runs /home/siddhartha/ChampSim/sim_list/gcc_56B.trace.gz
home 0
siddhartha 1
ChampSim 2
sim_list 3
gcc_56B 4
trace 5
gz 6
application: gcc_56B
CPU 1 runs /home/siddhartha/ChampSim/sim_list/gcc_56B.trace.gz
home 0
siddhartha 1
ChampSim 2
sim_list 3
gcc_56B 4
trace 5
gz 6
application: gcc_56B
CPU 2 runs /home/siddhartha/ChampSim/sim_list/gcc_56B.trace.gz
home 0
siddhartha 1
ChampSim 2
sim_list 3
gcc_56B 4
trace 5
gz 6
application: gcc_56B
CPU 3 runs /home/siddhartha/ChampSim/sim_list/gcc_56B.trace.gz
home 0
siddhartha 1
ChampSim 2
sim_list 3
gcc_56B 4
trace 5
gz 6
application: gcc_56B
CPU 0 Bimodal branch predictor
CPU 1 Bimodal branch predictor
CPU 2 Bimodal branch predictor
CPU 3 Bimodal branch predictor
Initialize DRRIP state
Assign rand_sets[0]: 454  LLC: 8192
rand_sets[0]: 454
Assign rand_sets[1]: 5758  LLC: 8192
rand_sets[1]: 5758
Assign rand_sets[2]: 1921  LLC: 8192
rand_sets[2]: 1921
Assign rand_sets[3]: 1131  LLC: 8192
rand_sets[3]: 1131
Assign rand_sets[4]: 6475  LLC: 8192
rand_sets[4]: 6475
Assign rand_sets[5]: 5627  LLC: 8192
rand_sets[5]: 5627
Assign rand_sets[6]: 6626  LLC: 8192
rand_sets[6]: 6626
Assign rand_sets[7]: 7419  LLC: 8192
rand_sets[7]: 7419
Assign rand_sets[8]: 8020  LLC: 8192
rand_sets[8]: 8020
Assign rand_sets[9]: 4086  LLC: 8192
rand_sets[9]: 4086
Assign rand_sets[10]: 2749  LLC: 8192
rand_sets[10]: 2749
Assign rand_sets[11]: 4575  LLC: 8192
rand_sets[11]: 4575
Assign rand_sets[12]: 892  LLC: 8192
rand_sets[12]: 892
Assign rand_sets[13]: 3868  LLC: 8192
rand_sets[13]: 3868
Assign rand_sets[14]: 7649  LLC: 8192
rand_sets[14]: 7649
Assign rand_sets[15]: 1159  LLC: 8192
rand_sets[15]: 1159
Assign rand_sets[16]: 513  LLC: 8192
rand_sets[16]: 513
Assign rand_sets[17]: 4799  LLC: 8192
rand_sets[17]: 4799
Assign rand_sets[18]: 561  LLC: 8192
rand_sets[18]: 561
Assign rand_sets[19]: 990  LLC: 8192
rand_sets[19]: 990
Assign rand_sets[20]: 2390  LLC: 8192
rand_sets[20]: 2390
Assign rand_sets[21]: 4978  LLC: 8192
rand_sets[21]: 4978
Assign rand_sets[22]: 4111  LLC: 8192
rand_sets[22]: 4111
Assign rand_sets[23]: 2119  LLC: 8192
rand_sets[23]: 2119
Assign rand_sets[24]: 3175  LLC: 8192
rand_sets[24]: 3175
Assign rand_sets[25]: 5478  LLC: 8192
rand_sets[25]: 5478
Assign rand_sets[26]: 647  LLC: 8192
rand_sets[26]: 647
Assign rand_sets[27]: 4953  LLC: 8192
rand_sets[27]: 4953
Assign rand_sets[28]: 3498  LLC: 8192
rand_sets[28]: 3498
Assign rand_sets[29]: 1160  LLC: 8192
rand_sets[29]: 1160
Assign rand_sets[30]: 5948  LLC: 8192
rand_sets[30]: 5948
Assign rand_sets[31]: 3929  LLC: 8192
rand_sets[31]: 3929
Assign rand_sets[32]: 3818  LLC: 8192
rand_sets[32]: 3818
Assign rand_sets[33]: 5718  LLC: 8192
rand_sets[33]: 5718
Assign rand_sets[34]: 275  LLC: 8192
rand_sets[34]: 275
Assign rand_sets[35]: 2683  LLC: 8192
rand_sets[35]: 2683
Assign rand_sets[36]: 4562  LLC: 8192
rand_sets[36]: 4562
Assign rand_sets[37]: 3461  LLC: 8192
rand_sets[37]: 3461
Assign rand_sets[38]: 6561  LLC: 8192
rand_sets[38]: 6561
Assign rand_sets[39]: 2520  LLC: 8192
rand_sets[39]: 2520
Assign rand_sets[40]: 5436  LLC: 8192
rand_sets[40]: 5436
Assign rand_sets[41]: 6996  LLC: 8192
rand_sets[41]: 6996
Assign rand_sets[42]: 7509  LLC: 8192
rand_sets[42]: 7509
Assign rand_sets[43]: 4143  LLC: 8192
rand_sets[43]: 4143
Assign rand_sets[44]: 6967  LLC: 8192
rand_sets[44]: 6967
Assign rand_sets[45]: 6830  LLC: 8192
rand_sets[45]: 6830
Assign rand_sets[46]: 7781  LLC: 8192
rand_sets[46]: 7781
Assign rand_sets[47]: 5211  LLC: 8192
rand_sets[47]: 5211
Assign rand_sets[48]: 986  LLC: 8192
rand_sets[48]: 986
Assign rand_sets[49]: 258  LLC: 8192
rand_sets[49]: 258
Assign rand_sets[50]: 6777  LLC: 8192
rand_sets[50]: 6777
Assign rand_sets[51]: 920  LLC: 8192
rand_sets[51]: 920
Assign rand_sets[52]: 2252  LLC: 8192
rand_sets[52]: 2252
Assign rand_sets[53]: 227  LLC: 8192
rand_sets[53]: 227
Assign rand_sets[54]: 7962  LLC: 8192
rand_sets[54]: 7962
Assign rand_sets[55]: 2934  LLC: 8192
rand_sets[55]: 2934
Assign rand_sets[56]: 1422  LLC: 8192
rand_sets[56]: 1422
Assign rand_sets[57]: 6751  LLC: 8192
rand_sets[57]: 6751
Assign rand_sets[58]: 2265  LLC: 8192
rand_sets[58]: 2265
Assign rand_sets[59]: 1945  LLC: 8192
rand_sets[59]: 1945
Assign rand_sets[60]: 6287  LLC: 8192
rand_sets[60]: 6287
Assign rand_sets[61]: 5407  LLC: 8192
rand_sets[61]: 5407
Assign rand_sets[62]: 2367  LLC: 8192
rand_sets[62]: 2367
Assign rand_sets[63]: 3894  LLC: 8192
rand_sets[63]: 3894
Assign rand_sets[64]: 2286  LLC: 8192
rand_sets[64]: 2286
Assign rand_sets[65]: 67  LLC: 8192
rand_sets[65]: 67
Assign rand_sets[66]: 8056  LLC: 8192
rand_sets[66]: 8056
Assign rand_sets[67]: 7757  LLC: 8192
rand_sets[67]: 7757
Assign rand_sets[68]: 7437  LLC: 8192
rand_sets[68]: 7437
Assign rand_sets[69]: 5114  LLC: 8192
rand_sets[69]: 5114
Assign rand_sets[70]: 4030  LLC: 8192
rand_sets[70]: 4030
Assign rand_sets[71]: 5798  LLC: 8192
rand_sets[71]: 5798
Assign rand_sets[72]: 3546  LLC: 8192
rand_sets[72]: 3546
Assign rand_sets[73]: 4324  LLC: 8192
rand_sets[73]: 4324
Assign rand_sets[74]: 1414  LLC: 8192
rand_sets[74]: 1414
Assign rand_sets[75]: 5262  LLC: 8192
rand_sets[75]: 5262
Assign rand_sets[76]: 732  LLC: 8192
rand_sets[76]: 732
Assign rand_sets[77]: 6441  LLC: 8192
rand_sets[77]: 6441
Assign rand_sets[78]: 3181  LLC: 8192
rand_sets[78]: 3181
Assign rand_sets[79]: 4942  LLC: 8192
rand_sets[79]: 4942
Assign rand_sets[80]: 767  LLC: 8192
rand_sets[80]: 767
Assign rand_sets[81]: 8022  LLC: 8192
rand_sets[81]: 8022
Assign rand_sets[82]: 3041  LLC: 8192
rand_sets[82]: 3041
Assign rand_sets[83]: 7536  LLC: 8192
rand_sets[83]: 7536
Assign rand_sets[84]: 1568  LLC: 8192
rand_sets[84]: 1568
Assign rand_sets[85]: 1787  LLC: 8192
rand_sets[85]: 1787
Assign rand_sets[86]: 4495  LLC: 8192
rand_sets[86]: 4495
Assign rand_sets[87]: 1201  LLC: 8192
rand_sets[87]: 1201
Assign rand_sets[88]: 4952  LLC: 8192
rand_sets[88]: 4952
Assign rand_sets[89]: 4869  LLC: 8192
rand_sets[89]: 4869
Assign rand_sets[90]: 5776  LLC: 8192
rand_sets[90]: 5776
Assign rand_sets[91]: 7621  LLC: 8192
rand_sets[91]: 7621
Assign rand_sets[92]: 6153  LLC: 8192
rand_sets[92]: 6153
Assign rand_sets[93]: 7644  LLC: 8192
rand_sets[93]: 7644
Assign rand_sets[94]: 2899  LLC: 8192
rand_sets[94]: 2899
Assign rand_sets[95]: 7117  LLC: 8192
rand_sets[95]: 7117
Assign rand_sets[96]: 938  LLC: 8192
rand_sets[96]: 938
Assign rand_sets[97]: 5947  LLC: 8192
rand_sets[97]: 5947
Assign rand_sets[98]: 5704  LLC: 8192
rand_sets[98]: 5704
Assign rand_sets[99]: 1945  LLC: 8192
Assign rand_sets[99]: 5202  LLC: 8192
rand_sets[99]: 5202
Assign rand_sets[100]: 979  LLC: 8192
rand_sets[100]: 979
Assign rand_sets[101]: 4434  LLC: 8192
rand_sets[101]: 4434
Assign rand_sets[102]: 3741  LLC: 8192
rand_sets[102]: 3741
Assign rand_sets[103]: 6  LLC: 8192
rand_sets[103]: 6
Assign rand_sets[104]: 6815  LLC: 8192
rand_sets[104]: 6815
Assign rand_sets[105]: 4586  LLC: 8192
rand_sets[105]: 4586
Assign rand_sets[106]: 1461  LLC: 8192
rand_sets[106]: 1461
Assign rand_sets[107]: 1730  LLC: 8192
rand_sets[107]: 1730
Assign rand_sets[108]: 7174  LLC: 8192
rand_sets[108]: 7174
Assign rand_sets[109]: 2067  LLC: 8192
rand_sets[109]: 2067
Assign rand_sets[110]: 7064  LLC: 8192
rand_sets[110]: 7064
Assign rand_sets[111]: 6473  LLC: 8192
rand_sets[111]: 6473
Assign rand_sets[112]: 7858  LLC: 8192
rand_sets[112]: 7858
Assign rand_sets[113]: 1  LLC: 8192
rand_sets[113]: 1
Assign rand_sets[114]: 5918  LLC: 8192
rand_sets[114]: 5918
Assign rand_sets[115]: 172  LLC: 8192
rand_sets[115]: 172
Assign rand_sets[116]: 3634  LLC: 8192
rand_sets[116]: 3634
Assign rand_sets[117]: 4744  LLC: 8192
rand_sets[117]: 4744
Assign rand_sets[118]: 7473  LLC: 8192
rand_sets[118]: 7473
Assign rand_sets[119]: 4764  LLC: 8192
rand_sets[119]: 4764
Assign rand_sets[120]: 5970  LLC: 8192
rand_sets[120]: 5970
Assign rand_sets[121]: 4166  LLC: 8192
rand_sets[121]: 4166
Assign rand_sets[122]: 6805  LLC: 8192
rand_sets[122]: 6805
Assign rand_sets[123]: 7793  LLC: 8192
rand_sets[123]: 7793
Assign rand_sets[124]: 7734  LLC: 8192
rand_sets[124]: 7734
Assign rand_sets[125]: 5007  LLC: 8192
rand_sets[125]: 5007
Assign rand_sets[126]: 3415  LLC: 8192
rand_sets[126]: 3415
Assign rand_sets[127]: 7926  LLC: 8192
rand_sets[127]: 7926
Assign rand_sets[128]: 6713  LLC: 8192
rand_sets[128]: 6713
Assign rand_sets[129]: 1309  LLC: 8192
rand_sets[129]: 1309
Assign rand_sets[130]: 2582  LLC: 8192
rand_sets[130]: 2582
Assign rand_sets[131]: 7418  LLC: 8192
rand_sets[131]: 7418
Assign rand_sets[132]: 5000  LLC: 8192
rand_sets[132]: 5000
Assign rand_sets[133]: 8052  LLC: 8192
rand_sets[133]: 8052
Assign rand_sets[134]: 6389  LLC: 8192
rand_sets[134]: 6389
Assign rand_sets[135]: 3736  LLC: 8192
rand_sets[135]: 3736
Assign rand_sets[136]: 7804  LLC: 8192
rand_sets[136]: 7804
Assign rand_sets[137]: 7447  LLC: 8192
rand_sets[137]: 7447
Assign rand_sets[138]: 1628  LLC: 8192
rand_sets[138]: 1628
Assign rand_sets[139]: 8001  LLC: 8192
rand_sets[139]: 8001
Assign rand_sets[140]: 4283  LLC: 8192
rand_sets[140]: 4283
Assign rand_sets[141]: 7533  LLC: 8192
rand_sets[141]: 7533
Assign rand_sets[142]: 881  LLC: 8192
rand_sets[142]: 881
Assign rand_sets[143]: 3214  LLC: 8192
rand_sets[143]: 3214
Assign rand_sets[144]: 3087  LLC: 8192
rand_sets[144]: 3087
Assign rand_sets[145]: 3184  LLC: 8192
rand_sets[145]: 3184
Assign rand_sets[146]: 4697  LLC: 8192
rand_sets[146]: 4697
Assign rand_sets[147]: 967  LLC: 8192
rand_sets[147]: 967
Assign rand_sets[148]: 6913  LLC: 8192
rand_sets[148]: 6913
Assign rand_sets[149]: 6427  LLC: 8192
rand_sets[149]: 6427
Assign rand_sets[150]: 6703  LLC: 8192
rand_sets[150]: 6703
Assign rand_sets[151]: 3123  LLC: 8192
rand_sets[151]: 3123
Assign rand_sets[152]: 6973  LLC: 8192
rand_sets[152]: 6973
Assign rand_sets[153]: 1681  LLC: 8192
rand_sets[153]: 1681
Assign rand_sets[154]: 7872  LLC: 8192
rand_sets[154]: 7872
Assign rand_sets[155]: 2589  LLC: 8192
rand_sets[155]: 2589
Assign rand_sets[156]: 4517  LLC: 8192
rand_sets[156]: 4517
Assign rand_sets[157]: 1037  LLC: 8192
rand_sets[157]: 1037
Assign rand_sets[158]: 6157  LLC: 8192
rand_sets[158]: 6157
Assign rand_sets[159]: 1707  LLC: 8192
rand_sets[159]: 1707
Assign rand_sets[160]: 1075  LLC: 8192
rand_sets[160]: 1075
Assign rand_sets[161]: 6029  LLC: 8192
rand_sets[161]: 6029
Assign rand_sets[162]: 1406  LLC: 8192
rand_sets[162]: 1406
Assign rand_sets[163]: 2142  LLC: 8192
rand_sets[163]: 2142
Assign rand_sets[164]: 5519  LLC: 8192
rand_sets[164]: 5519
Assign rand_sets[165]: 1854  LLC: 8192
rand_sets[165]: 1854
Assign rand_sets[166]: 6374  LLC: 8192
rand_sets[166]: 6374
Assign rand_sets[167]: 2152  LLC: 8192
rand_sets[167]: 2152
Assign rand_sets[168]: 7796  LLC: 8192
rand_sets[168]: 7796
Assign rand_sets[169]: 3494  LLC: 8192
rand_sets[169]: 3494
Assign rand_sets[170]: 5434  LLC: 8192
rand_sets[170]: 5434
Assign rand_sets[171]: 4273  LLC: 8192
rand_sets[171]: 4273
Assign rand_sets[172]: 195  LLC: 8192
rand_sets[172]: 195
Assign rand_sets[173]: 1171  LLC: 8192
rand_sets[173]: 1171
Assign rand_sets[174]: 7441  LLC: 8192
rand_sets[174]: 7441
Assign rand_sets[175]: 3752  LLC: 8192
rand_sets[175]: 3752
Assign rand_sets[176]: 4196  LLC: 8192
rand_sets[176]: 4196
Assign rand_sets[177]: 4807  LLC: 8192
rand_sets[177]: 4807
Assign rand_sets[178]: 3291  LLC: 8192
rand_sets[178]: 3291
Assign rand_sets[179]: 1738  LLC: 8192
rand_sets[179]: 1738
Assign rand_sets[180]: 3552  LLC: 8192
rand_sets[180]: 3552
Assign rand_sets[181]: 2144  LLC: 8192
rand_sets[181]: 2144
Assign rand_sets[182]: 7393  LLC: 8192
rand_sets[182]: 7393
Assign rand_sets[183]: 5363  LLC: 8192
rand_sets[183]: 5363
Assign rand_sets[184]: 3775  LLC: 8192
rand_sets[184]: 3775
Assign rand_sets[185]: 5641  LLC: 8192
rand_sets[185]: 5641
Assign rand_sets[186]: 1792  LLC: 8192
rand_sets[186]: 1792
Assign rand_sets[187]: 1383  LLC: 8192
rand_sets[187]: 1383
Assign rand_sets[188]: 4002  LLC: 8192
rand_sets[188]: 4002
Assign rand_sets[189]: 2787  LLC: 8192
rand_sets[189]: 2787
Assign rand_sets[190]: 3109  LLC: 8192
rand_sets[190]: 3109
Assign rand_sets[191]: 4768  LLC: 8192
rand_sets[191]: 4768
Assign rand_sets[192]: 3105  LLC: 8192
rand_sets[192]: 3105
Assign rand_sets[193]: 1329  LLC: 8192
rand_sets[193]: 1329
Assign rand_sets[194]: 5511  LLC: 8192
rand_sets[194]: 5511
Assign rand_sets[195]: 5077  LLC: 8192
rand_sets[195]: 5077
Assign rand_sets[196]: 6242  LLC: 8192
rand_sets[196]: 6242
Assign rand_sets[197]: 453  LLC: 8192
rand_sets[197]: 453
Assign rand_sets[198]: 3496  LLC: 8192
rand_sets[198]: 3496
Assign rand_sets[199]: 2127  LLC: 8192
rand_sets[199]: 2127
Assign rand_sets[200]: 6270  LLC: 8192
rand_sets[200]: 6270
Assign rand_sets[201]: 5678  LLC: 8192
rand_sets[201]: 5678
Assign rand_sets[202]: 3337  LLC: 8192
rand_sets[202]: 3337
Assign rand_sets[203]: 2923  LLC: 8192
rand_sets[203]: 2923
Assign rand_sets[204]: 4500  LLC: 8192
rand_sets[204]: 4500
Assign rand_sets[205]: 415  LLC: 8192
rand_sets[205]: 415
Assign rand_sets[206]: 5808  LLC: 8192
rand_sets[206]: 5808
Assign rand_sets[207]: 7533  LLC: 8192
Assign rand_sets[207]: 4265  LLC: 8192
rand_sets[207]: 4265
Assign rand_sets[208]: 158  LLC: 8192
rand_sets[208]: 158
Assign rand_sets[209]: 90  LLC: 8192
rand_sets[209]: 90
Assign rand_sets[210]: 3339  LLC: 8192
rand_sets[210]: 3339
Assign rand_sets[211]: 838  LLC: 8192
rand_sets[211]: 838
Assign rand_sets[212]: 3952  LLC: 8192
rand_sets[212]: 3952
Assign rand_sets[213]: 640  LLC: 8192
rand_sets[213]: 640
Assign rand_sets[214]: 3510  LLC: 8192
rand_sets[214]: 3510
Assign rand_sets[215]: 7631  LLC: 8192
rand_sets[215]: 7631
Assign rand_sets[216]: 1863  LLC: 8192
rand_sets[216]: 1863
Assign rand_sets[217]: 3084  LLC: 8192
rand_sets[217]: 3084
Assign rand_sets[218]: 1702  LLC: 8192
rand_sets[218]: 1702
Assign rand_sets[219]: 2981  LLC: 8192
rand_sets[219]: 2981
Assign rand_sets[220]: 554  LLC: 8192
rand_sets[220]: 554
Assign rand_sets[221]: 5592  LLC: 8192
rand_sets[221]: 5592
Assign rand_sets[222]: 1708  LLC: 8192
rand_sets[222]: 1708
Assign rand_sets[223]: 1275  LLC: 8192
rand_sets[223]: 1275
Assign rand_sets[224]: 4512  LLC: 8192
rand_sets[224]: 4512
Assign rand_sets[225]: 4587  LLC: 8192
rand_sets[225]: 4587
Assign rand_sets[226]: 2231  LLC: 8192
rand_sets[226]: 2231
Assign rand_sets[227]: 1657  LLC: 8192
rand_sets[227]: 1657
Assign rand_sets[228]: 5156  LLC: 8192
rand_sets[228]: 5156
Assign rand_sets[229]: 4722  LLC: 8192
rand_sets[229]: 4722
Assign rand_sets[230]: 5411  LLC: 8192
rand_sets[230]: 5411
Assign rand_sets[231]: 1682  LLC: 8192
rand_sets[231]: 1682
Assign rand_sets[232]: 5448  LLC: 8192
rand_sets[232]: 5448
Assign rand_sets[233]: 1152  LLC: 8192
rand_sets[233]: 1152
Assign rand_sets[234]: 3013  LLC: 8192
rand_sets[234]: 3013
Assign rand_sets[235]: 1190  LLC: 8192
rand_sets[235]: 1190
Assign rand_sets[236]: 1191  LLC: 8192
rand_sets[236]: 1191
Assign rand_sets[237]: 6789  LLC: 8192
rand_sets[237]: 6789
Assign rand_sets[238]: 695  LLC: 8192
rand_sets[238]: 695
Assign rand_sets[239]: 3543  LLC: 8192
rand_sets[239]: 3543
Assign rand_sets[240]: 3980  LLC: 8192
rand_sets[240]: 3980
Assign rand_sets[241]: 656  LLC: 8192
rand_sets[241]: 656
Assign rand_sets[242]: 1508  LLC: 8192
rand_sets[242]: 1508
Assign rand_sets[243]: 5035  LLC: 8192
rand_sets[243]: 5035
Assign rand_sets[244]: 2403  LLC: 8192
rand_sets[244]: 2403
Assign rand_sets[245]: 1092  LLC: 8192
rand_sets[245]: 1092
Assign rand_sets[246]: 850  LLC: 8192
rand_sets[246]: 850
Assign rand_sets[247]: 4198  LLC: 8192
rand_sets[247]: 4198
Assign rand_sets[248]: 3811  LLC: 8192
rand_sets[248]: 3811
Assign rand_sets[249]: 668  LLC: 8192
rand_sets[249]: 668
Assign rand_sets[250]: 4147  LLC: 8192
rand_sets[250]: 4147
Assign rand_sets[251]: 5413  LLC: 8192
rand_sets[251]: 5413
Assign rand_sets[252]: 4089  LLC: 8192
rand_sets[252]: 4089
Assign rand_sets[253]: 7518  LLC: 8192
rand_sets[253]: 7518
Assign rand_sets[254]: 4778  LLC: 8192
rand_sets[254]: 4778
Assign rand_sets[255]: 7610  LLC: 8192
rand_sets[255]: 7610

Warmup complete CPU 0 instructions: 1000192 cycles: 980201 (Simulation time: 0 hr 0 min 20 sec) 
Warmup complete CPU 1 instructions: 1000160 cycles: 980201 (Simulation time: 0 hr 0 min 20 sec) 
Warmup complete CPU 2 instructions: 1000122 cycles: 980201 (Simulation time: 0 hr 0 min 20 sec) 
Warmup complete CPU 3 instructions: 1000003 cycles: 980201 (Simulation time: 0 hr 0 min 20 sec) 

Finished CPU 2 instructions: 4000000 cycles: 5474773 cumulative IPC: 0.730624 (Simulation time: 0 hr 1 min 55 sec) 
Finished CPU 3 instructions: 4000000 cycles: 5474833 cumulative IPC: 0.730616 (Simulation time: 0 hr 1 min 55 sec) 
Finished CPU 1 instructions: 4000003 cycles: 5474844 cumulative IPC: 0.730615 (Simulation time: 0 hr 1 min 55 sec) 
Finished CPU 0 instructions: 4000000 cycles: 5474977 cumulative IPC: 0.730597 (Simulation time: 0 hr 1 min 55 sec) 

CPU 0 Branch Prediction Accuracy: 97.1077% MPKI: 4.84502

CPU 1 Branch Prediction Accuracy: 97.1078% MPKI: 4.84496

CPU 2 Branch Prediction Accuracy: 97.1078% MPKI: 4.84491

CPU 3 Branch Prediction Accuracy: 97.1078% MPKI: 4.84507

ChampSim completed all CPUs

Total Simulation Statistics (not including warmup)

CPU 0 cumulative IPC: 0.730597 instructions: 4000000 cycles: 5474977
L1D TOTAL     ACCESS:     597635  HIT:     168911  MISS:     428724
L1D LOAD      ACCESS:     106134  HIT:      98378  MISS:       7756
L1D RFO       ACCESS:     491501  HIT:      70533  MISS:     420968
L1D PREFETCH  ACCESS:          0  HIT:          0  MISS:          0
L1D WRITEBACK ACCESS:          0  HIT:          0  MISS:          0
L1I TOTAL     ACCESS:    1480583  HIT:    1480583  MISS:          0
L1I LOAD      ACCESS:    1480583  HIT:    1480583  MISS:          0
L1I RFO       ACCESS:          0  HIT:          0  MISS:          0
L1I PREFETCH  ACCESS:          0  HIT:          0  MISS:          0
L1I WRITEBACK ACCESS:          0  HIT:          0  MISS:          0
L2C TOTAL     ACCESS:     852254  HIT:     471083  MISS:     381171
L2C LOAD      ACCESS:       7756  HIT:       1372  MISS:       6384
L2C RFO       ACCESS:     420969  HIT:      46182  MISS:     374787
L2C PREFETCH  ACCESS:          0  HIT:          0  MISS:          0
L2C WRITEBACK ACCESS:     423529  HIT:     423529  MISS:          0
LLC TOTAL     ACCESS:     757709  HIT:     755566  MISS:       2143
LLC LOAD      ACCESS:       6384  HIT:       4609  MISS:       1775
LLC RFO       ACCESS:     374790  HIT:     374423  MISS:        367
LLC PREFETCH  ACCESS:          0  HIT:          0  MISS:          0
LLC WRITEBACK ACCESS:     376535  HIT:     376534  MISS:          1

CPU 1 cumulative IPC: 0.730612 instructions: 4000082 cycles: 5474977
L1D TOTAL     ACCESS:     597881  HIT:     169139  MISS:     428742
L1D LOAD      ACCESS:     106147  HIT:      98391  MISS:       7756
L1D RFO       ACCESS:     491734  HIT:      70748  MISS:     420986
L1D PREFETCH  ACCESS:          0  HIT:          0  MISS:          0
L1D WRITEBACK ACCESS:          0  HIT:          0  MISS:          0
L1I TOTAL     ACCESS:    1480668  HIT:    1480668  MISS:          0
L1I LOAD      ACCESS:    1480668  HIT:    1480668  MISS:          0
L1I RFO       ACCESS:          0  HIT:          0  MISS:          0
L1I PREFETCH  ACCESS:          0  HIT:          0  MISS:          0
L1I WRITEBACK ACCESS:          0  HIT:          0  MISS:          0
L2C TOTAL     ACCESS:     852289  HIT:     481977  MISS:     370312
L2C LOAD      ACCESS:       7756  HIT:       1131  MISS:       6625
L2C RFO       ACCESS:     420986  HIT:      57299  MISS:     363687
L2C PREFETCH  ACCESS:          0  HIT:          0  MISS:          0
L2C WRITEBACK ACCESS:     423547  HIT:     423547  MISS:          0
LLC TOTAL     ACCESS:     735856  HIT:     733713  MISS:       2143
LLC LOAD      ACCESS:       6625  HIT:       4849  MISS:       1776
LLC RFO       ACCESS:     363688  HIT:     363321  MISS:        367
LLC PREFETCH  ACCESS:          0  HIT:          0  MISS:          0
LLC WRITEBACK ACCESS:     365543  HIT:     365543  MISS:          0

CPU 2 cumulative IPC: 0.730626 instructions: 4000162 cycles: 5474977
L1D TOTAL     ACCESS:     597576  HIT:     168822  MISS:     428754
L1D LOAD      ACCESS:     106046  HIT:      98290  MISS:       7756
L1D RFO       ACCESS:     491530  HIT:      70532  MISS:     420998
L1D PREFETCH  ACCESS:          0  HIT:          0  MISS:          0
L1D WRITEBACK ACCESS:          0  HIT:          0  MISS:          0
L1I TOTAL     ACCESS:    1480664  HIT:    1480664  MISS:          0
L1I LOAD      ACCESS:    1480664  HIT:    1480664  MISS:          0
L1I RFO       ACCESS:          0  HIT:          0  MISS:          0
L1I PREFETCH  ACCESS:          0  HIT:          0  MISS:          0
L1I WRITEBACK ACCESS:          0  HIT:          0  MISS:          0
L2C TOTAL     ACCESS:     852314  HIT:     478444  MISS:     373870
L2C LOAD      ACCESS:       7756  HIT:       1438  MISS:       6318
L2C RFO       ACCESS:     420999  HIT:      53447  MISS:     367552
L2C PREFETCH  ACCESS:          0  HIT:          0  MISS:          0
L2C WRITEBACK ACCESS:     423559  HIT:     423559  MISS:          0
LLC TOTAL     ACCESS:     742914  HIT:     740772  MISS:       2142
LLC LOAD      ACCESS:       6318  HIT:       4543  MISS:       1775
LLC RFO       ACCESS:     367552  HIT:     367185  MISS:        367
LLC PREFETCH  ACCESS:          0  HIT:          0  MISS:          0
LLC WRITEBACK ACCESS:     369044  HIT:     369044  MISS:          0

CPU 3 cumulative IPC: 0.730623 instructions: 4000146 cycles: 5474977
L1D TOTAL     ACCESS:     597635  HIT:     168887  MISS:     428748
L1D LOAD      ACCESS:     106175  HIT:      98419  MISS:       7756
L1D RFO       ACCESS:     491460  HIT:      70468  MISS:     420992
L1D PREFETCH  ACCESS:          0  HIT:          0  MISS:          0
L1D WRITEBACK ACCESS:          0  HIT:          0  MISS:          0
L1I TOTAL     ACCESS:    1480723  HIT:    1480723  MISS:          0
L1I LOAD      ACCESS:    1480723  HIT:    1480723  MISS:          0
L1I RFO       ACCESS:          0  HIT:          0  MISS:          0
L1I PREFETCH  ACCESS:          0  HIT:          0  MISS:          0
L1I WRITEBACK ACCESS:          0  HIT:          0  MISS:          0
L2C TOTAL     ACCESS:     852300  HIT:     471130  MISS:     381170
L2C LOAD      ACCESS:       7756  HIT:        603  MISS:       7153
L2C RFO       ACCESS:     420992  HIT:      46976  MISS:     374016
L2C PREFETCH  ACCESS:          0  HIT:          0  MISS:          0
L2C WRITEBACK ACCESS:     423552  HIT:     423551  MISS:          1
LLC TOTAL     ACCESS:     757420  HIT:     755277  MISS:       2143
LLC LOAD      ACCESS:       7153  HIT:       5378  MISS:       1775
LLC RFO       ACCESS:     374017  HIT:     373650  MISS:        367
LLC PREFETCH  ACCESS:          0  HIT:          0  MISS:          0
LLC WRITEBACK ACCESS:     376250  HIT:     376249  MISS:          1

Region of Interest Statistics

CPU 0 cumulative IPC: 0.730597 instructions: 4000000 cycles: 5474977
L1D TOTAL     ACCESS:     597635  HIT:     168911  MISS:     428724
L1D LOAD      ACCESS:     106134  HIT:      98378  MISS:       7756
L1D RFO       ACCESS:     491501  HIT:      70533  MISS:     420968
L1D PREFETCH  ACCESS:          0  HIT:          0  MISS:          0
L1D WRITEBACK ACCESS:          0  HIT:          0  MISS:          0
L1D PREFETCH  REQUESTED:          0  ISSUED:          0  USEFUL:          0  USELESS:          0
L1I TOTAL     ACCESS:    1480583  HIT:    1480583  MISS:          0
L1I LOAD      ACCESS:    1480583  HIT:    1480583  MISS:          0
L1I RFO       ACCESS:          0  HIT:          0  MISS:          0
L1I PREFETCH  ACCESS:          0  HIT:          0  MISS:          0
L1I WRITEBACK ACCESS:          0  HIT:          0  MISS:          0
L1I PREFETCH  REQUESTED:          0  ISSUED:          0  USEFUL:          0  USELESS:          0
L2C TOTAL     ACCESS:     852254  HIT:     471083  MISS:     381171
L2C LOAD      ACCESS:       7756  HIT:       1372  MISS:       6384
L2C RFO       ACCESS:     420969  HIT:      46182  MISS:     374787
L2C PREFETCH  ACCESS:          0  HIT:          0  MISS:          0
L2C WRITEBACK ACCESS:     423529  HIT:     423529  MISS:          0
L2C PREFETCH  REQUESTED:          0  ISSUED:          0  USEFUL:          0  USELESS:          0
LLC TOTAL     ACCESS:     757708  HIT:     755565  MISS:       2143
LLC LOAD      ACCESS:       6384  HIT:       4609  MISS:       1775
LLC RFO       ACCESS:     374789  HIT:     374422  MISS:        367
LLC PREFETCH  ACCESS:          0  HIT:          0  MISS:          0
LLC WRITEBACK ACCESS:     376535  HIT:     376534  MISS:          1
LLC PREFETCH  REQUESTED:          0  ISSUED:          0  USEFUL:          0  USELESS:          0
Major fault: 0 Minor fault: 398

CPU 1 cumulative IPC: 0.730615 instructions: 4000003 cycles: 5474844
L1D TOTAL     ACCESS:     597866  HIT:     169139  MISS:     428727
L1D LOAD      ACCESS:     106147  HIT:      98391  MISS:       7756
L1D RFO       ACCESS:     491719  HIT:      70748  MISS:     420971
L1D PREFETCH  ACCESS:          0  HIT:          0  MISS:          0
L1D WRITEBACK ACCESS:          0  HIT:          0  MISS:          0
L1D PREFETCH  REQUESTED:          0  ISSUED:          0  USEFUL:          0  USELESS:          0
L1I TOTAL     ACCESS:    1480631  HIT:    1480631  MISS:          0
L1I LOAD      ACCESS:    1480631  HIT:    1480631  MISS:          0
L1I RFO       ACCESS:          0  HIT:          0  MISS:          0
L1I PREFETCH  ACCESS:          0  HIT:          0  MISS:          0
L1I WRITEBACK ACCESS:          0  HIT:          0  MISS:          0
L1I PREFETCH  REQUESTED:          0  ISSUED:          0  USEFUL:          0  USELESS:          0
L2C TOTAL     ACCESS:     852258  HIT:     481962  MISS:     370296
L2C LOAD      ACCESS:       7756  HIT:       1131  MISS:       6625
L2C RFO       ACCESS:     420970  HIT:      57299  MISS:     363671
L2C PREFETCH  ACCESS:          0  HIT:          0  MISS:          0
L2C WRITEBACK ACCESS:     423532  HIT:     423532  MISS:          0
L2C PREFETCH  REQUESTED:          0  ISSUED:          0  USEFUL:          0  USELESS:          0
LLC TOTAL     ACCESS:     735823  HIT:     733680  MISS:       2143
LLC LOAD      ACCESS:       6625  HIT:       4849  MISS:       1776
LLC RFO       ACCESS:     363672  HIT:     363305  MISS:        367
LLC PREFETCH  ACCESS:          0  HIT:          0  MISS:          0
LLC WRITEBACK ACCESS:     365526  HIT:     365526  MISS:          0
LLC PREFETCH  REQUESTED:          0  ISSUED:          0  USEFUL:          0  USELESS:          0
Major fault: 0 Minor fault: 398

CPU 2 cumulative IPC: 0.730624 instructions: 4000000 cycles: 5474773
L1D TOTAL     ACCESS:     597551  HIT:     168822  MISS:     428729
L1D LOAD      ACCESS:     106046  HIT:      98290  MISS:       7756
L1D RFO       ACCESS:     491505  HIT:      70532  MISS:     420973
L1D PREFETCH  ACCESS:          0  HIT:          0  MISS:          0
L1D WRITEBACK ACCESS:          0  HIT:          0  MISS:          0
L1D PREFETCH  REQUESTED:          0  ISSUED:          0  USEFUL:          0  USELESS:          0
L1I TOTAL     ACCESS:    1480591  HIT:    1480591  MISS:          0
L1I LOAD      ACCESS:    1480591  HIT:    1480591  MISS:          0
L1I RFO       ACCESS:          0  HIT:          0  MISS:          0
L1I PREFETCH  ACCESS:          0  HIT:          0  MISS:          0
L1I WRITEBACK ACCESS:          0  HIT:          0  MISS:          0
L1I PREFETCH  REQUESTED:          0  ISSUED:          0  USEFUL:          0  USELESS:          0
L2C TOTAL     ACCESS:     852263  HIT:     478419  MISS:     373844
L2C LOAD      ACCESS:       7756  HIT:       1438  MISS:       6318
L2C RFO       ACCESS:     420973  HIT:      53447  MISS:     367526
L2C PREFETCH  ACCESS:          0  HIT:          0  MISS:          0
L2C WRITEBACK ACCESS:     423534  HIT:     423534  MISS:          0
L2C PREFETCH  REQUESTED:          0  ISSUED:          0  USEFUL:          0  USELESS:          0
LLC TOTAL     ACCESS:     742865  HIT:     740723  MISS:       2142
LLC LOAD      ACCESS:       6318  HIT:       4543  MISS:       1775
LLC RFO       ACCESS:     367527  HIT:     367160  MISS:        367
LLC PREFETCH  ACCESS:          0  HIT:          0  MISS:          0
LLC WRITEBACK ACCESS:     369020  HIT:     369020  MISS:          0
LLC PREFETCH  REQUESTED:          0  ISSUED:          0  USEFUL:          0  USELESS:          0
Major fault: 0 Minor fault: 398

CPU 3 cumulative IPC: 0.730616 instructions: 4000000 cycles: 5474833
L1D TOTAL     ACCESS:     597617  HIT:     168887  MISS:     428730
L1D LOAD      ACCESS:     106175  HIT:      98419  MISS:       7756
L1D RFO       ACCESS:     491442  HIT:      70468  MISS:     420974
L1D PREFETCH  ACCESS:          0  HIT:          0  MISS:          0
L1D WRITEBACK ACCESS:          0  HIT:          0  MISS:          0
L1D PREFETCH  REQUESTED:          0  ISSUED:          0  USEFUL:          0  USELESS:          0
L1I TOTAL     ACCESS:    1480660  HIT:    1480660  MISS:          0
L1I LOAD      ACCESS:    1480660  HIT:    1480660  MISS:          0
L1I RFO       ACCESS:          0  HIT:          0  MISS:          0
L1I PREFETCH  ACCESS:          0  HIT:          0  MISS:          0
L1I WRITEBACK ACCESS:          0  HIT:          0  MISS:          0
L1I PREFETCH  REQUESTED:          0  ISSUED:          0  USEFUL:          0  USELESS:          0
L2C TOTAL     ACCESS:     852264  HIT:     471112  MISS:     381152
L2C LOAD      ACCESS:       7756  HIT:        603  MISS:       7153
L2C RFO       ACCESS:     420974  HIT:      46976  MISS:     373998
L2C PREFETCH  ACCESS:          0  HIT:          0  MISS:          0
L2C WRITEBACK ACCESS:     423534  HIT:     423533  MISS:          1
L2C PREFETCH  REQUESTED:          0  ISSUED:          0  USEFUL:          0  USELESS:          0
LLC TOTAL     ACCESS:     757383  HIT:     755240  MISS:       2143
LLC LOAD      ACCESS:       7153  HIT:       5378  MISS:       1775
LLC RFO       ACCESS:     373999  HIT:     373632  MISS:        367
LLC PREFETCH  ACCESS:          0  HIT:          0  MISS:          0
LLC WRITEBACK ACCESS:     376231  HIT:     376230  MISS:          1
LLC PREFETCH  REQUESTED:          0  ISSUED:          0  USEFUL:          0  USELESS:          0
Major fault: 0 Minor fault: 398

DRAM Statistics
 CHANNEL 0
 RQ ROW_BUFFER_HIT:       3435  ROW_BUFFER_MISS:       1029
 DBUS_CONGESTED:        267
 WQ ROW_BUFFER_HIT:          0  ROW_BUFFER_MISS:          0  FULL:          0

 CHANNEL 1
 RQ ROW_BUFFER_HIT:       3176  ROW_BUFFER_MISS:        929
 DBUS_CONGESTED:        267
 WQ ROW_BUFFER_HIT:          0  ROW_BUFFER_MISS:          0  FULL:          0

 AVG_CONGESTED_CYCLE: 11
