
*** ChampSim Multicore Out-of-Order Simulator ***

Warmup Instructions: 1000000
Simulation Instructions: 4000000
Number of CPUs: 4
LLC sets: 8192
LLC ways: 16
Off-chip DRAM Size: 8192 MB Channels: 2 Width: 64-bit Data Rate: 1600 MT/s

CPU 0 runs /home/siddhartha/ChampSim/sim_list/gromacs_0B.trace.gz
home 0
siddhartha 1
ChampSim 2
sim_list 3
gromacs_0B 4
trace 5
gz 6
application: gromacs_0B
CPU 1 runs /home/siddhartha/ChampSim/sim_list/gromacs_0B.trace.gz
home 0
siddhartha 1
ChampSim 2
sim_list 3
gromacs_0B 4
trace 5
gz 6
application: gromacs_0B
CPU 2 runs /home/siddhartha/ChampSim/sim_list/gromacs_0B.trace.gz
home 0
siddhartha 1
ChampSim 2
sim_list 3
gromacs_0B 4
trace 5
gz 6
application: gromacs_0B
CPU 3 runs /home/siddhartha/ChampSim/sim_list/gromacs_0B.trace.gz
home 0
siddhartha 1
ChampSim 2
sim_list 3
gromacs_0B 4
trace 5
gz 6
application: gromacs_0B
CPU 0 Bimodal branch predictor
CPU 1 Bimodal branch predictor
CPU 2 Bimodal branch predictor
CPU 3 Bimodal branch predictor
Initialize SRRIP state

Warmup complete CPU 0 instructions: 1000157 cycles: 614405 (Simulation time: 0 hr 0 min 16 sec) 
Warmup complete CPU 1 instructions: 1000089 cycles: 614405 (Simulation time: 0 hr 0 min 16 sec) 
Warmup complete CPU 2 instructions: 1000030 cycles: 614405 (Simulation time: 0 hr 0 min 16 sec) 
Warmup complete CPU 3 instructions: 1000003 cycles: 614405 (Simulation time: 0 hr 0 min 16 sec) 

Finished CPU 2 instructions: 4000000 cycles: 10255388 cumulative IPC: 0.390039 (Simulation time: 0 hr 2 min 21 sec) 
Finished CPU 3 instructions: 4000001 cycles: 10255439 cumulative IPC: 0.390037 (Simulation time: 0 hr 2 min 21 sec) 
Finished CPU 1 instructions: 4000000 cycles: 10255482 cumulative IPC: 0.390035 (Simulation time: 0 hr 2 min 21 sec) 
Finished CPU 0 instructions: 4000003 cycles: 10255600 cumulative IPC: 0.390031 (Simulation time: 0 hr 2 min 21 sec) 

CPU 0 Branch Prediction Accuracy: 99.5963% MPKI: 0.613725

CPU 1 Branch Prediction Accuracy: 99.5963% MPKI: 0.613731

CPU 2 Branch Prediction Accuracy: 99.5963% MPKI: 0.613734

CPU 3 Branch Prediction Accuracy: 99.5963% MPKI: 0.613742

ChampSim completed all CPUs

Total Simulation Statistics (not including warmup)

CPU 0 cumulative IPC: 0.390031 instructions: 4000003 cycles: 10255600
L1D TOTAL     ACCESS:    1634626  HIT:    1633865  MISS:        761
L1D LOAD      ACCESS:     871980  HIT:     871828  MISS:        152
L1D RFO       ACCESS:     762646  HIT:     762037  MISS:        609
L1D PREFETCH  ACCESS:          0  HIT:          0  MISS:          0
L1D WRITEBACK ACCESS:          0  HIT:          0  MISS:          0
L1I TOTAL     ACCESS:    1624624  HIT:    1624624  MISS:          0
L1I LOAD      ACCESS:    1624624  HIT:    1624624  MISS:          0
L1I RFO       ACCESS:          0  HIT:          0  MISS:          0
L1I PREFETCH  ACCESS:          0  HIT:          0  MISS:          0
L1I WRITEBACK ACCESS:          0  HIT:          0  MISS:          0
L2C TOTAL     ACCESS:       1515  HIT:        754  MISS:        761
L2C LOAD      ACCESS:        152  HIT:          0  MISS:        152
L2C RFO       ACCESS:        609  HIT:          0  MISS:        609
L2C PREFETCH  ACCESS:          0  HIT:          0  MISS:          0
L2C WRITEBACK ACCESS:        754  HIT:        754  MISS:          0
LLC TOTAL     ACCESS:       1410  HIT:        649  MISS:        761
LLC LOAD      ACCESS:        152  HIT:          0  MISS:        152
LLC RFO       ACCESS:        609  HIT:          0  MISS:        609
LLC PREFETCH  ACCESS:          0  HIT:          0  MISS:          0
LLC WRITEBACK ACCESS:        649  HIT:        649  MISS:          0

CPU 1 cumulative IPC: 0.390034 instructions: 4000033 cycles: 10255600
L1D TOTAL     ACCESS:    1634642  HIT:    1633881  MISS:        761
L1D LOAD      ACCESS:     871993  HIT:     871841  MISS:        152
L1D RFO       ACCESS:     762649  HIT:     762040  MISS:        609
L1D PREFETCH  ACCESS:          0  HIT:          0  MISS:          0
L1D WRITEBACK ACCESS:          0  HIT:          0  MISS:          0
L1I TOTAL     ACCESS:    1624684  HIT:    1624684  MISS:          0
L1I LOAD      ACCESS:    1624684  HIT:    1624684  MISS:          0
L1I RFO       ACCESS:          0  HIT:          0  MISS:          0
L1I PREFETCH  ACCESS:          0  HIT:          0  MISS:          0
L1I WRITEBACK ACCESS:          0  HIT:          0  MISS:          0
L2C TOTAL     ACCESS:       1515  HIT:        754  MISS:        761
L2C LOAD      ACCESS:        152  HIT:          0  MISS:        152
L2C RFO       ACCESS:        609  HIT:          0  MISS:        609
L2C PREFETCH  ACCESS:          0  HIT:          0  MISS:          0
L2C WRITEBACK ACCESS:        754  HIT:        754  MISS:          0
LLC TOTAL     ACCESS:       1384  HIT:        623  MISS:        761
LLC LOAD      ACCESS:        152  HIT:          0  MISS:        152
LLC RFO       ACCESS:        609  HIT:          0  MISS:        609
LLC PREFETCH  ACCESS:          0  HIT:          0  MISS:          0
LLC WRITEBACK ACCESS:        623  HIT:        623  MISS:          0

CPU 2 cumulative IPC: 0.390038 instructions: 4000076 cycles: 10255600
L1D TOTAL     ACCESS:    1634663  HIT:    1633902  MISS:        761
L1D LOAD      ACCESS:     872005  HIT:     871853  MISS:        152
L1D RFO       ACCESS:     762658  HIT:     762049  MISS:        609
L1D PREFETCH  ACCESS:          0  HIT:          0  MISS:          0
L1D WRITEBACK ACCESS:          0  HIT:          0  MISS:          0
L1I TOTAL     ACCESS:    1624772  HIT:    1624772  MISS:          0
L1I LOAD      ACCESS:    1624772  HIT:    1624772  MISS:          0
L1I RFO       ACCESS:          0  HIT:          0  MISS:          0
L1I PREFETCH  ACCESS:          0  HIT:          0  MISS:          0
L1I WRITEBACK ACCESS:          0  HIT:          0  MISS:          0
L2C TOTAL     ACCESS:       1515  HIT:        754  MISS:        761
L2C LOAD      ACCESS:        152  HIT:          0  MISS:        152
L2C RFO       ACCESS:        609  HIT:          0  MISS:        609
L2C PREFETCH  ACCESS:          0  HIT:          0  MISS:          0
L2C WRITEBACK ACCESS:        754  HIT:        754  MISS:          0
LLC TOTAL     ACCESS:       1428  HIT:        667  MISS:        761
LLC LOAD      ACCESS:        152  HIT:          0  MISS:        152
LLC RFO       ACCESS:        609  HIT:          0  MISS:        609
LLC PREFETCH  ACCESS:          0  HIT:          0  MISS:          0
LLC WRITEBACK ACCESS:        667  HIT:        667  MISS:          0

CPU 3 cumulative IPC: 0.390036 instructions: 4000052 cycles: 10255600
L1D TOTAL     ACCESS:    1634685  HIT:    1633924  MISS:        761
L1D LOAD      ACCESS:     872030  HIT:     871878  MISS:        152
L1D RFO       ACCESS:     762655  HIT:     762046  MISS:        609
L1D PREFETCH  ACCESS:          0  HIT:          0  MISS:          0
L1D WRITEBACK ACCESS:          0  HIT:          0  MISS:          0
L1I TOTAL     ACCESS:    1624855  HIT:    1624855  MISS:          0
L1I LOAD      ACCESS:    1624855  HIT:    1624855  MISS:          0
L1I RFO       ACCESS:          0  HIT:          0  MISS:          0
L1I PREFETCH  ACCESS:          0  HIT:          0  MISS:          0
L1I WRITEBACK ACCESS:          0  HIT:          0  MISS:          0
L2C TOTAL     ACCESS:       1515  HIT:        754  MISS:        761
L2C LOAD      ACCESS:        152  HIT:          0  MISS:        152
L2C RFO       ACCESS:        609  HIT:          0  MISS:        609
L2C PREFETCH  ACCESS:          0  HIT:          0  MISS:          0
L2C WRITEBACK ACCESS:        754  HIT:        754  MISS:          0
LLC TOTAL     ACCESS:       1417  HIT:        656  MISS:        761
LLC LOAD      ACCESS:        152  HIT:          0  MISS:        152
LLC RFO       ACCESS:        609  HIT:          0  MISS:        609
LLC PREFETCH  ACCESS:          0  HIT:          0  MISS:          0
LLC WRITEBACK ACCESS:        656  HIT:        656  MISS:          0

Region of Interest Statistics

CPU 0 cumulative IPC: 0.390031 instructions: 4000003 cycles: 10255600
L1D TOTAL     ACCESS:    1634626  HIT:    1633865  MISS:        761
L1D LOAD      ACCESS:     871980  HIT:     871828  MISS:        152
L1D RFO       ACCESS:     762646  HIT:     762037  MISS:        609
L1D PREFETCH  ACCESS:          0  HIT:          0  MISS:          0
L1D WRITEBACK ACCESS:          0  HIT:          0  MISS:          0
L1D PREFETCH  REQUESTED:          0  ISSUED:          0  USEFUL:          0  USELESS:          0
L1I TOTAL     ACCESS:    1624624  HIT:    1624624  MISS:          0
L1I LOAD      ACCESS:    1624624  HIT:    1624624  MISS:          0
L1I RFO       ACCESS:          0  HIT:          0  MISS:          0
L1I PREFETCH  ACCESS:          0  HIT:          0  MISS:          0
L1I WRITEBACK ACCESS:          0  HIT:          0  MISS:          0
L1I PREFETCH  REQUESTED:          0  ISSUED:          0  USEFUL:          0  USELESS:          0
L2C TOTAL     ACCESS:       1515  HIT:        754  MISS:        761
L2C LOAD      ACCESS:        152  HIT:          0  MISS:        152
L2C RFO       ACCESS:        609  HIT:          0  MISS:        609
L2C PREFETCH  ACCESS:          0  HIT:          0  MISS:          0
L2C WRITEBACK ACCESS:        754  HIT:        754  MISS:          0
L2C PREFETCH  REQUESTED:          0  ISSUED:          0  USEFUL:          0  USELESS:          0
LLC TOTAL     ACCESS:       1410  HIT:        649  MISS:        761
LLC LOAD      ACCESS:        152  HIT:          0  MISS:        152
LLC RFO       ACCESS:        609  HIT:          0  MISS:        609
LLC PREFETCH  ACCESS:          0  HIT:          0  MISS:          0
LLC WRITEBACK ACCESS:        649  HIT:        649  MISS:          0
LLC PREFETCH  REQUESTED:          0  ISSUED:          0  USEFUL:          0  USELESS:          0
Major fault: 0 Minor fault: 198

CPU 1 cumulative IPC: 0.390035 instructions: 4000000 cycles: 10255482
L1D TOTAL     ACCESS:    1634620  HIT:    1633859  MISS:        761
L1D LOAD      ACCESS:     871980  HIT:     871828  MISS:        152
L1D RFO       ACCESS:     762640  HIT:     762031  MISS:        609
L1D PREFETCH  ACCESS:          0  HIT:          0  MISS:          0
L1D WRITEBACK ACCESS:          0  HIT:          0  MISS:          0
L1D PREFETCH  REQUESTED:          0  ISSUED:          0  USEFUL:          0  USELESS:          0
L1I TOTAL     ACCESS:    1624666  HIT:    1624666  MISS:          0
L1I LOAD      ACCESS:    1624666  HIT:    1624666  MISS:          0
L1I RFO       ACCESS:          0  HIT:          0  MISS:          0
L1I PREFETCH  ACCESS:          0  HIT:          0  MISS:          0
L1I WRITEBACK ACCESS:          0  HIT:          0  MISS:          0
L1I PREFETCH  REQUESTED:          0  ISSUED:          0  USEFUL:          0  USELESS:          0
L2C TOTAL     ACCESS:       1515  HIT:        754  MISS:        761
L2C LOAD      ACCESS:        152  HIT:          0  MISS:        152
L2C RFO       ACCESS:        609  HIT:          0  MISS:        609
L2C PREFETCH  ACCESS:          0  HIT:          0  MISS:          0
L2C WRITEBACK ACCESS:        754  HIT:        754  MISS:          0
L2C PREFETCH  REQUESTED:          0  ISSUED:          0  USEFUL:          0  USELESS:          0
LLC TOTAL     ACCESS:       1384  HIT:        623  MISS:        761
LLC LOAD      ACCESS:        152  HIT:          0  MISS:        152
LLC RFO       ACCESS:        609  HIT:          0  MISS:        609
LLC PREFETCH  ACCESS:          0  HIT:          0  MISS:          0
LLC WRITEBACK ACCESS:        623  HIT:        623  MISS:          0
LLC PREFETCH  REQUESTED:          0  ISSUED:          0  USEFUL:          0  USELESS:          0
Major fault: 0 Minor fault: 198

CPU 2 cumulative IPC: 0.390039 instructions: 4000000 cycles: 10255388
L1D TOTAL     ACCESS:    1634627  HIT:    1633866  MISS:        761
L1D LOAD      ACCESS:     871981  HIT:     871829  MISS:        152
L1D RFO       ACCESS:     762646  HIT:     762037  MISS:        609
L1D PREFETCH  ACCESS:          0  HIT:          0  MISS:          0
L1D WRITEBACK ACCESS:          0  HIT:          0  MISS:          0
L1D PREFETCH  REQUESTED:          0  ISSUED:          0  USEFUL:          0  USELESS:          0
L1I TOTAL     ACCESS:    1624737  HIT:    1624737  MISS:          0
L1I LOAD      ACCESS:    1624737  HIT:    1624737  MISS:          0
L1I RFO       ACCESS:          0  HIT:          0  MISS:          0
L1I PREFETCH  ACCESS:          0  HIT:          0  MISS:          0
L1I WRITEBACK ACCESS:          0  HIT:          0  MISS:          0
L1I PREFETCH  REQUESTED:          0  ISSUED:          0  USEFUL:          0  USELESS:          0
L2C TOTAL     ACCESS:       1515  HIT:        754  MISS:        761
L2C LOAD      ACCESS:        152  HIT:          0  MISS:        152
L2C RFO       ACCESS:        609  HIT:          0  MISS:        609
L2C PREFETCH  ACCESS:          0  HIT:          0  MISS:          0
L2C WRITEBACK ACCESS:        754  HIT:        754  MISS:          0
L2C PREFETCH  REQUESTED:          0  ISSUED:          0  USEFUL:          0  USELESS:          0
LLC TOTAL     ACCESS:       1428  HIT:        667  MISS:        761
LLC LOAD      ACCESS:        152  HIT:          0  MISS:        152
LLC RFO       ACCESS:        609  HIT:          0  MISS:        609
LLC PREFETCH  ACCESS:          0  HIT:          0  MISS:          0
LLC WRITEBACK ACCESS:        667  HIT:        667  MISS:          0
LLC PREFETCH  REQUESTED:          0  ISSUED:          0  USEFUL:          0  USELESS:          0
Major fault: 0 Minor fault: 198

CPU 3 cumulative IPC: 0.390037 instructions: 4000001 cycles: 10255439
L1D TOTAL     ACCESS:    1634661  HIT:    1633900  MISS:        761
L1D LOAD      ACCESS:     872012  HIT:     871860  MISS:        152
L1D RFO       ACCESS:     762649  HIT:     762040  MISS:        609
L1D PREFETCH  ACCESS:          0  HIT:          0  MISS:          0
L1D WRITEBACK ACCESS:          0  HIT:          0  MISS:          0
L1D PREFETCH  REQUESTED:          0  ISSUED:          0  USEFUL:          0  USELESS:          0
L1I TOTAL     ACCESS:    1624830  HIT:    1624830  MISS:          0
L1I LOAD      ACCESS:    1624830  HIT:    1624830  MISS:          0
L1I RFO       ACCESS:          0  HIT:          0  MISS:          0
L1I PREFETCH  ACCESS:          0  HIT:          0  MISS:          0
L1I WRITEBACK ACCESS:          0  HIT:          0  MISS:          0
L1I PREFETCH  REQUESTED:          0  ISSUED:          0  USEFUL:          0  USELESS:          0
L2C TOTAL     ACCESS:       1515  HIT:        754  MISS:        761
L2C LOAD      ACCESS:        152  HIT:          0  MISS:        152
L2C RFO       ACCESS:        609  HIT:          0  MISS:        609
L2C PREFETCH  ACCESS:          0  HIT:          0  MISS:          0
L2C WRITEBACK ACCESS:        754  HIT:        754  MISS:          0
L2C PREFETCH  REQUESTED:          0  ISSUED:          0  USEFUL:          0  USELESS:          0
LLC TOTAL     ACCESS:       1417  HIT:        656  MISS:        761
LLC LOAD      ACCESS:        152  HIT:          0  MISS:        152
LLC RFO       ACCESS:        609  HIT:          0  MISS:        609
LLC PREFETCH  ACCESS:          0  HIT:          0  MISS:          0
LLC WRITEBACK ACCESS:        656  HIT:        656  MISS:          0
LLC PREFETCH  REQUESTED:          0  ISSUED:          0  USEFUL:          0  USELESS:          0
Major fault: 0 Minor fault: 198

DRAM Statistics
 CHANNEL 0
 RQ ROW_BUFFER_HIT:       1472  ROW_BUFFER_MISS:         48
 DBUS_CONGESTED:          0
 WQ ROW_BUFFER_HIT:          0  ROW_BUFFER_MISS:          0  FULL:          0

 CHANNEL 1
 RQ ROW_BUFFER_HIT:       1476  ROW_BUFFER_MISS:         48
 DBUS_CONGESTED:          0
 WQ ROW_BUFFER_HIT:          0  ROW_BUFFER_MISS:          0  FULL:          0

