
*** ChampSim Multicore Out-of-Order Simulator ***

Warmup Instructions: 1000000
Simulation Instructions: 4000000
Number of CPUs: 4
LLC sets: 8192
LLC ways: 16
Off-chip DRAM Size: 8192 MB Channels: 2 Width: 64-bit Data Rate: 1600 MT/s

CPU 0 runs /home/siddhartha/ChampSim/sim_list/hmmer_397B.trace.gz
home 0
siddhartha 1
ChampSim 2
sim_list 3
hmmer_397B 4
trace 5
gz 6
application: hmmer_397B
CPU 1 runs /home/siddhartha/ChampSim/sim_list/hmmer_397B.trace.gz
home 0
siddhartha 1
ChampSim 2
sim_list 3
hmmer_397B 4
trace 5
gz 6
application: hmmer_397B
CPU 2 runs /home/siddhartha/ChampSim/sim_list/hmmer_397B.trace.gz
home 0
siddhartha 1
ChampSim 2
sim_list 3
hmmer_397B 4
trace 5
gz 6
application: hmmer_397B
CPU 3 runs /home/siddhartha/ChampSim/sim_list/hmmer_397B.trace.gz
home 0
siddhartha 1
ChampSim 2
sim_list 3
hmmer_397B 4
trace 5
gz 6
application: hmmer_397B
CPU 0 Bimodal branch predictor
CPU 1 Bimodal branch predictor
CPU 2 Bimodal branch predictor
CPU 3 Bimodal branch predictor
Initialize SRRIP state

Warmup complete CPU 0 instructions: 1000073 cycles: 624216 (Simulation time: 0 hr 0 min 20 sec) 
Warmup complete CPU 1 instructions: 1000053 cycles: 624216 (Simulation time: 0 hr 0 min 20 sec) 
Warmup complete CPU 2 instructions: 1000042 cycles: 624216 (Simulation time: 0 hr 0 min 20 sec) 
Warmup complete CPU 3 instructions: 1000002 cycles: 624216 (Simulation time: 0 hr 0 min 20 sec) 

Finished CPU 2 instructions: 4000000 cycles: 3705585 cumulative IPC: 1.07945 (Simulation time: 0 hr 1 min 56 sec) 
Finished CPU 3 instructions: 4000001 cycles: 3714198 cumulative IPC: 1.07695 (Simulation time: 0 hr 1 min 56 sec) 
Finished CPU 1 instructions: 4000002 cycles: 3714686 cumulative IPC: 1.07681 (Simulation time: 0 hr 1 min 56 sec) 
Finished CPU 0 instructions: 4000001 cycles: 3715306 cumulative IPC: 1.07663 (Simulation time: 0 hr 1 min 56 sec) 

CPU 0 Branch Prediction Accuracy: 99.4193% MPKI: 0.215496

CPU 1 Branch Prediction Accuracy: 99.4181% MPKI: 0.215962

CPU 2 Branch Prediction Accuracy: 99.4195% MPKI: 0.215409

CPU 3 Branch Prediction Accuracy: 99.4182% MPKI: 0.215936

ChampSim completed all CPUs

Total Simulation Statistics (not including warmup)

CPU 0 cumulative IPC: 1.07663 instructions: 4000001 cycles: 3715306
L1D TOTAL     ACCESS:    1640664  HIT:    1619032  MISS:      21632
L1D LOAD      ACCESS:    1308629  HIT:    1299295  MISS:       9334
L1D RFO       ACCESS:     332035  HIT:     319737  MISS:      12298
L1D PREFETCH  ACCESS:          0  HIT:          0  MISS:          0
L1D WRITEBACK ACCESS:          0  HIT:          0  MISS:          0
L1I TOTAL     ACCESS:    1060117  HIT:    1060117  MISS:          0
L1I LOAD      ACCESS:    1060117  HIT:    1060117  MISS:          0
L1I RFO       ACCESS:          0  HIT:          0  MISS:          0
L1I PREFETCH  ACCESS:          0  HIT:          0  MISS:          0
L1I WRITEBACK ACCESS:          0  HIT:          0  MISS:          0
L2C TOTAL     ACCESS:      34038  HIT:      20933  MISS:      13105
L2C LOAD      ACCESS:       9333  HIT:       8526  MISS:        807
L2C RFO       ACCESS:      12298  HIT:          0  MISS:      12298
L2C PREFETCH  ACCESS:          0  HIT:          0  MISS:          0
L2C WRITEBACK ACCESS:      12407  HIT:      12407  MISS:          0
LLC TOTAL     ACCESS:      24598  HIT:      12081  MISS:      12517
LLC LOAD      ACCESS:        807  HIT:        588  MISS:        219
LLC RFO       ACCESS:      12298  HIT:          0  MISS:      12298
LLC PREFETCH  ACCESS:          0  HIT:          0  MISS:          0
LLC WRITEBACK ACCESS:      11493  HIT:      11493  MISS:          0

CPU 1 cumulative IPC: 1.0768 instructions: 4000651 cycles: 3715306
L1D TOTAL     ACCESS:    1640900  HIT:    1619271  MISS:      21629
L1D LOAD      ACCESS:    1308819  HIT:    1299488  MISS:       9331
L1D RFO       ACCESS:     332081  HIT:     319783  MISS:      12298
L1D PREFETCH  ACCESS:          0  HIT:          0  MISS:          0
L1D WRITEBACK ACCESS:          0  HIT:          0  MISS:          0
L1I TOTAL     ACCESS:    1060236  HIT:    1060236  MISS:          0
L1I LOAD      ACCESS:    1060236  HIT:    1060236  MISS:          0
L1I RFO       ACCESS:          0  HIT:          0  MISS:          0
L1I PREFETCH  ACCESS:          0  HIT:          0  MISS:          0
L1I WRITEBACK ACCESS:          0  HIT:          0  MISS:          0
L2C TOTAL     ACCESS:      34035  HIT:      20736  MISS:      13299
L2C LOAD      ACCESS:       9330  HIT:       8329  MISS:       1001
L2C RFO       ACCESS:      12298  HIT:          0  MISS:      12298
L2C PREFETCH  ACCESS:          0  HIT:          0  MISS:          0
L2C WRITEBACK ACCESS:      12407  HIT:      12407  MISS:          0
LLC TOTAL     ACCESS:      25009  HIT:      12492  MISS:      12517
LLC LOAD      ACCESS:       1001  HIT:        782  MISS:        219
LLC RFO       ACCESS:      12298  HIT:          0  MISS:      12298
LLC PREFETCH  ACCESS:          0  HIT:          0  MISS:          0
LLC WRITEBACK ACCESS:      11710  HIT:      11710  MISS:          0

CPU 2 cumulative IPC: 1.07957 instructions: 4010925 cycles: 3715306
L1D TOTAL     ACCESS:    1645191  HIT:    1623519  MISS:      21672
L1D LOAD      ACCESS:    1312264  HIT:    1302923  MISS:       9341
L1D RFO       ACCESS:     332927  HIT:     320596  MISS:      12331
L1D PREFETCH  ACCESS:          0  HIT:          0  MISS:          0
L1D WRITEBACK ACCESS:          0  HIT:          0  MISS:          0
L1I TOTAL     ACCESS:    1062811  HIT:    1062811  MISS:          0
L1I LOAD      ACCESS:    1062811  HIT:    1062811  MISS:          0
L1I RFO       ACCESS:          0  HIT:          0  MISS:          0
L1I PREFETCH  ACCESS:          0  HIT:          0  MISS:          0
L1I WRITEBACK ACCESS:          0  HIT:          0  MISS:          0
L2C TOTAL     ACCESS:      34092  HIT:      20790  MISS:      13302
L2C LOAD      ACCESS:       9340  HIT:       8369  MISS:        971
L2C RFO       ACCESS:      12331  HIT:          0  MISS:      12331
L2C PREFETCH  ACCESS:          0  HIT:          0  MISS:          0
L2C WRITEBACK ACCESS:      12421  HIT:      12421  MISS:          0
LLC TOTAL     ACCESS:      25165  HIT:      12615  MISS:      12550
LLC LOAD      ACCESS:        971  HIT:        752  MISS:        219
LLC RFO       ACCESS:      12331  HIT:          0  MISS:      12331
LLC PREFETCH  ACCESS:          0  HIT:          0  MISS:          0
LLC WRITEBACK ACCESS:      11863  HIT:      11863  MISS:          0

CPU 3 cumulative IPC: 1.07694 instructions: 4001176 cycles: 3715306
L1D TOTAL     ACCESS:    1641533  HIT:    1619903  MISS:      21630
L1D LOAD      ACCESS:    1308905  HIT:    1299573  MISS:       9332
L1D RFO       ACCESS:     332628  HIT:     320330  MISS:      12298
L1D PREFETCH  ACCESS:          0  HIT:          0  MISS:          0
L1D WRITEBACK ACCESS:          0  HIT:          0  MISS:          0
L1I TOTAL     ACCESS:    1060183  HIT:    1060183  MISS:          0
L1I LOAD      ACCESS:    1060183  HIT:    1060183  MISS:          0
L1I RFO       ACCESS:          0  HIT:          0  MISS:          0
L1I PREFETCH  ACCESS:          0  HIT:          0  MISS:          0
L1I WRITEBACK ACCESS:          0  HIT:          0  MISS:          0
L2C TOTAL     ACCESS:      34036  HIT:      20607  MISS:      13429
L2C LOAD      ACCESS:       9331  HIT:       8200  MISS:       1131
L2C RFO       ACCESS:      12298  HIT:          0  MISS:      12298
L2C PREFETCH  ACCESS:          0  HIT:          0  MISS:          0
L2C WRITEBACK ACCESS:      12407  HIT:      12407  MISS:          0
LLC TOTAL     ACCESS:      24862  HIT:      12345  MISS:      12517
LLC LOAD      ACCESS:       1131  HIT:        912  MISS:        219
LLC RFO       ACCESS:      12298  HIT:          0  MISS:      12298
LLC PREFETCH  ACCESS:          0  HIT:          0  MISS:          0
LLC WRITEBACK ACCESS:      11433  HIT:      11433  MISS:          0

Region of Interest Statistics

CPU 0 cumulative IPC: 1.07663 instructions: 4000001 cycles: 3715306
L1D TOTAL     ACCESS:    1640664  HIT:    1619032  MISS:      21632
L1D LOAD      ACCESS:    1308629  HIT:    1299295  MISS:       9334
L1D RFO       ACCESS:     332035  HIT:     319737  MISS:      12298
L1D PREFETCH  ACCESS:          0  HIT:          0  MISS:          0
L1D WRITEBACK ACCESS:          0  HIT:          0  MISS:          0
L1D PREFETCH  REQUESTED:          0  ISSUED:          0  USEFUL:          0  USELESS:          0
L1I TOTAL     ACCESS:    1060117  HIT:    1060117  MISS:          0
L1I LOAD      ACCESS:    1060117  HIT:    1060117  MISS:          0
L1I RFO       ACCESS:          0  HIT:          0  MISS:          0
L1I PREFETCH  ACCESS:          0  HIT:          0  MISS:          0
L1I WRITEBACK ACCESS:          0  HIT:          0  MISS:          0
L1I PREFETCH  REQUESTED:          0  ISSUED:          0  USEFUL:          0  USELESS:          0
L2C TOTAL     ACCESS:      34038  HIT:      20933  MISS:      13105
L2C LOAD      ACCESS:       9333  HIT:       8526  MISS:        807
L2C RFO       ACCESS:      12298  HIT:          0  MISS:      12298
L2C PREFETCH  ACCESS:          0  HIT:          0  MISS:          0
L2C WRITEBACK ACCESS:      12407  HIT:      12407  MISS:          0
L2C PREFETCH  REQUESTED:          0  ISSUED:          0  USEFUL:          0  USELESS:          0
LLC TOTAL     ACCESS:      24598  HIT:      12081  MISS:      12517
LLC LOAD      ACCESS:        807  HIT:        588  MISS:        219
LLC RFO       ACCESS:      12298  HIT:          0  MISS:      12298
LLC PREFETCH  ACCESS:          0  HIT:          0  MISS:          0
LLC WRITEBACK ACCESS:      11493  HIT:      11493  MISS:          0
LLC PREFETCH  REQUESTED:          0  ISSUED:          0  USEFUL:          0  USELESS:          0
Major fault: 0 Minor fault: 274

CPU 1 cumulative IPC: 1.07681 instructions: 4000002 cycles: 3714686
L1D TOTAL     ACCESS:    1640817  HIT:    1619188  MISS:      21629
L1D LOAD      ACCESS:    1308746  HIT:    1299415  MISS:       9331
L1D RFO       ACCESS:     332071  HIT:     319773  MISS:      12298
L1D PREFETCH  ACCESS:          0  HIT:          0  MISS:          0
L1D WRITEBACK ACCESS:          0  HIT:          0  MISS:          0
L1D PREFETCH  REQUESTED:          0  ISSUED:          0  USEFUL:          0  USELESS:          0
L1I TOTAL     ACCESS:    1059994  HIT:    1059994  MISS:          0
L1I LOAD      ACCESS:    1059994  HIT:    1059994  MISS:          0
L1I RFO       ACCESS:          0  HIT:          0  MISS:          0
L1I PREFETCH  ACCESS:          0  HIT:          0  MISS:          0
L1I WRITEBACK ACCESS:          0  HIT:          0  MISS:          0
L1I PREFETCH  REQUESTED:          0  ISSUED:          0  USEFUL:          0  USELESS:          0
L2C TOTAL     ACCESS:      34035  HIT:      20736  MISS:      13299
L2C LOAD      ACCESS:       9330  HIT:       8329  MISS:       1001
L2C RFO       ACCESS:      12298  HIT:          0  MISS:      12298
L2C PREFETCH  ACCESS:          0  HIT:          0  MISS:          0
L2C WRITEBACK ACCESS:      12407  HIT:      12407  MISS:          0
L2C PREFETCH  REQUESTED:          0  ISSUED:          0  USEFUL:          0  USELESS:          0
LLC TOTAL     ACCESS:      25009  HIT:      12492  MISS:      12517
LLC LOAD      ACCESS:       1001  HIT:        782  MISS:        219
LLC RFO       ACCESS:      12298  HIT:          0  MISS:      12298
LLC PREFETCH  ACCESS:          0  HIT:          0  MISS:          0
LLC WRITEBACK ACCESS:      11710  HIT:      11710  MISS:          0
LLC PREFETCH  REQUESTED:          0  ISSUED:          0  USEFUL:          0  USELESS:          0
Major fault: 0 Minor fault: 274

CPU 2 cumulative IPC: 1.07945 instructions: 4000000 cycles: 3705585
L1D TOTAL     ACCESS:    1640689  HIT:    1619058  MISS:      21631
L1D LOAD      ACCESS:    1308671  HIT:    1299338  MISS:       9333
L1D RFO       ACCESS:     332018  HIT:     319720  MISS:      12298
L1D PREFETCH  ACCESS:          0  HIT:          0  MISS:          0
L1D WRITEBACK ACCESS:          0  HIT:          0  MISS:          0
L1D PREFETCH  REQUESTED:          0  ISSUED:          0  USEFUL:          0  USELESS:          0
L1I TOTAL     ACCESS:    1059970  HIT:    1059970  MISS:          0
L1I LOAD      ACCESS:    1059970  HIT:    1059970  MISS:          0
L1I RFO       ACCESS:          0  HIT:          0  MISS:          0
L1I PREFETCH  ACCESS:          0  HIT:          0  MISS:          0
L1I WRITEBACK ACCESS:          0  HIT:          0  MISS:          0
L1I PREFETCH  REQUESTED:          0  ISSUED:          0  USEFUL:          0  USELESS:          0
L2C TOTAL     ACCESS:      34037  HIT:      20768  MISS:      13269
L2C LOAD      ACCESS:       9332  HIT:       8361  MISS:        971
L2C RFO       ACCESS:      12298  HIT:          0  MISS:      12298
L2C PREFETCH  ACCESS:          0  HIT:          0  MISS:          0
L2C WRITEBACK ACCESS:      12407  HIT:      12407  MISS:          0
L2C PREFETCH  REQUESTED:          0  ISSUED:          0  USEFUL:          0  USELESS:          0
LLC TOTAL     ACCESS:      25099  HIT:      12582  MISS:      12517
LLC LOAD      ACCESS:        971  HIT:        752  MISS:        219
LLC RFO       ACCESS:      12298  HIT:          0  MISS:      12298
LLC PREFETCH  ACCESS:          0  HIT:          0  MISS:          0
LLC WRITEBACK ACCESS:      11830  HIT:      11830  MISS:          0
LLC PREFETCH  REQUESTED:          0  ISSUED:          0  USEFUL:          0  USELESS:          0
Major fault: 0 Minor fault: 274

CPU 3 cumulative IPC: 1.07695 instructions: 4000001 cycles: 3714198
L1D TOTAL     ACCESS:    1641217  HIT:    1619588  MISS:      21629
L1D LOAD      ACCESS:    1308652  HIT:    1299321  MISS:       9331
L1D RFO       ACCESS:     332565  HIT:     320267  MISS:      12298
L1D PREFETCH  ACCESS:          0  HIT:          0  MISS:          0
L1D WRITEBACK ACCESS:          0  HIT:          0  MISS:          0
L1D PREFETCH  REQUESTED:          0  ISSUED:          0  USEFUL:          0  USELESS:          0
L1I TOTAL     ACCESS:    1059788  HIT:    1059788  MISS:          0
L1I LOAD      ACCESS:    1059788  HIT:    1059788  MISS:          0
L1I RFO       ACCESS:          0  HIT:          0  MISS:          0
L1I PREFETCH  ACCESS:          0  HIT:          0  MISS:          0
L1I WRITEBACK ACCESS:          0  HIT:          0  MISS:          0
L1I PREFETCH  REQUESTED:          0  ISSUED:          0  USEFUL:          0  USELESS:          0
L2C TOTAL     ACCESS:      34035  HIT:      20606  MISS:      13429
L2C LOAD      ACCESS:       9330  HIT:       8199  MISS:       1131
L2C RFO       ACCESS:      12298  HIT:          0  MISS:      12298
L2C PREFETCH  ACCESS:          0  HIT:          0  MISS:          0
L2C WRITEBACK ACCESS:      12407  HIT:      12407  MISS:          0
L2C PREFETCH  REQUESTED:          0  ISSUED:          0  USEFUL:          0  USELESS:          0
LLC TOTAL     ACCESS:      24862  HIT:      12345  MISS:      12517
LLC LOAD      ACCESS:       1131  HIT:        912  MISS:        219
LLC RFO       ACCESS:      12298  HIT:          0  MISS:      12298
LLC PREFETCH  ACCESS:          0  HIT:          0  MISS:          0
LLC WRITEBACK ACCESS:      11433  HIT:      11433  MISS:          0
LLC PREFETCH  REQUESTED:          0  ISSUED:          0  USEFUL:          0  USELESS:          0
Major fault: 0 Minor fault: 274

DRAM Statistics
 CHANNEL 0
 RQ ROW_BUFFER_HIT:      23745  ROW_BUFFER_MISS:       1309
 DBUS_CONGESTED:       3132
 WQ ROW_BUFFER_HIT:          0  ROW_BUFFER_MISS:          0  FULL:          0

 CHANNEL 1
 RQ ROW_BUFFER_HIT:      23750  ROW_BUFFER_MISS:       1297
 DBUS_CONGESTED:       3132
 WQ ROW_BUFFER_HIT:          0  ROW_BUFFER_MISS:          0  FULL:          0

 AVG_CONGESTED_CYCLE: 7
